Version8/Distrib/Examples/InverterModels/PVSystem2/ModelValidation/SnapShot_Standard-PV2.dss
Clear

New Circuit.TheveninEquivalente bus1=A pu=1.0 basekv=13.8 
~ Z0=[0.000000001, 0.000000001] Z1=[0.000000001, 0.000000001]

New XYCurve.Eff npts=4 xarray=[.1 .2 .4 1.0] yarray=[1 1 1 1]

New XYCurve.FatorPvsT npts=4 xarray=[0 25 75 100] yarray=[1 1 1 1] 

New PVSystem2.PV phases=3 bus1=A Pmpp=1000 kV=13.8 kVA=1200 conn=wye EffCurve=Eff 
~ P-TCurve=FatorPvsT %Pmpp=100 Temperature=25 irradiance=1    

Set voltagebases=[13.8]
Calcvoltagebases

set casename=SnapShot_Standard-PV2

Solve

Show Power kVA elements








